http://www.rcsb.org/pdb/files/1fvv.pdb.gz
 OpenBabel02081204513D
Jmol version 13.0.9  2012-11-23 13:17 EXTRACT: ({8960:8990})
 72 76  0  0  0  0  0  0  0  0999 V2000
  -11.2220  207.9760  109.2120 O   0  0  0  0  0  0  0  0  0  0  0  0
  -12.1710  207.5020  109.8420 C   0  0  0  0  0  0  0  0  0  0  0  0
  -13.3600  207.1380  109.3200 N   0  0  0  0  0  0  0  0  0  0  0  0
  -14.2170  206.7500  110.3000 C   0  0  0  0  0  0  0  0  0  0  0  0
  -15.6380  206.3600  110.1900 C   0  0  0  0  0  0  0  0  0  0  0  0
  -16.3860  205.9670  111.3900 C   0  0  0  0  0  0  0  0  0  0  0  0
  -15.7410  206.0270  112.6900 C   0  0  0  0  0  0  0  0  0  0  0  0
  -16.2320  205.7140  113.9500 N   0  0  0  0  0  0  0  0  0  0  0  0
  -15.3040  205.8370  114.9320 C   0  0  0  0  0  0  0  0  0  0  0  0
  -13.8140  206.4530  114.4280 S   0  0  0  0  0  0  0  0  0  0  0  0
  -14.2920  206.4680  112.8160 C   0  0  0  0  0  0  0  0  0  0  0  0
  -13.5570  206.8060  111.5860 C   0  0  0  0  0  0  0  0  0  0  0  0
  -12.2030  207.2550  111.3270 C   0  0  0  0  0  0  0  0  0  0  0  0
  -11.1760  207.4750  112.1700 C   0  0  0  0  0  0  0  0  0  0  0  0
  -10.1070  208.4390  111.7920 N   0  0  0  0  0  0  0  0  0  0  0  0
   -9.0990  208.8850  112.5560 C   0  0  0  0  0  0  0  0  0  0  0  0
   -9.2420  209.2080  114.0130 C   0  0  0  0  0  0  0  0  0  0  0  0
   -8.0670  209.5940  114.7840 C   0  0  0  0  0  0  0  0  0  0  0  0
   -6.7650  209.7680  114.0980 C   0  0  0  0  0  0  0  0  0  0  0  0
   -6.6070  209.4480  112.6660 C   0  0  0  0  0  0  0  0  0  0  0  0
   -7.7830  209.0220  111.8860 C   0  0  0  0  0  0  0  0  0  0  0  0
   -5.4220  210.3800  115.0540 S   0  0  0  0  0  0  0  0  0  0  0  0
   -4.2100  210.2890  114.2980 O   0  0  0  0  0  0  0  0  0  0  0  0
   -5.8540  211.6490  115.5540 O   0  0  0  0  0  0  0  0  0  0  0  0
   -5.2170  209.3650  116.3500 N   0  0  0  0  0  0  0  0  0  0  0  0
   -3.5620  206.0480  115.3440 C   0  0  0  0  0  0  0  0  0  0  0  0
   -3.8620  205.2520  116.5560 C   0  0  0  0  0  0  0  0  0  0  0  0
   -4.7090  205.8750  117.5970 C   0  0  0  0  0  0  0  0  0  0  0  0
   -5.1930  207.2180  117.4430 N   0  0  0  0  0  0  0  0  0  0  0  0
   -4.8230  208.0270  116.3130 C   0  0  0  0  0  0  0  0  0  0  0  0
   -4.0220  207.4320  115.1920 C   0  0  0  0  0  0  0  0  0  0  0  0
  -11.4537  208.0330  108.2718 H   0  0  0  0  0  0  0  0  0  0  0  0
  -11.3189  207.8191  109.2779 H   0  0  0  0  0  0  0  0  0  0  0  0
  -13.2301  206.3806  108.6493 H   0  0  0  0  0  0  0  0  0  0  0  0
  -15.0183  206.3642  109.7050 H   0  0  0  0  0  0  0  0  0  0  0  0
  -15.7181  205.5736  109.4688 H   0  0  0  0  0  0  0  0  0  0  0  0
  -16.1085  207.2817  109.9179 H   0  0  0  0  0  0  0  0  0  0  0  0
  -16.7651  204.9770  111.2446 H   0  0  0  0  0  0  0  0  0  0  0  0
  -17.1305  206.7321  111.4627 H   0  0  0  0  0  0  0  0  0  0  0  0
  -16.6452  205.8915  112.1342 H   0  0  0  0  0  0  0  0  0  0  0  0
  -16.6024  204.7636  113.9465 H   0  0  0  0  0  0  0  0  0  0  0  0
  -15.1542  204.8858  115.3986 H   0  0  0  0  0  0  0  0  0  0  0  0
  -15.6996  206.5567  115.6179 H   0  0  0  0  0  0  0  0  0  0  0  0
  -13.3247  206.8636  112.5865 H   0  0  0  0  0  0  0  0  0  0  0  0
  -13.4594  206.6190  112.6350 H   0  0  0  0  0  0  0  0  0  0  0  0
  -11.5234  207.1748  112.1495 H   0  0  0  0  0  0  0  0  0  0  0  0
  -10.7194  206.5353  112.4011 H   0  0  0  0  0  0  0  0  0  0  0  0
  -11.6510  207.9641  112.9946 H   0  0  0  0  0  0  0  0  0  0  0  0
  -10.5684  209.2582  111.3964 H   0  0  0  0  0  0  0  0  0  0  0  0
   -9.7290  209.2713  113.3298 H   0  0  0  0  0  0  0  0  0  0  0  0
   -9.7101  208.3783  114.5002 H   0  0  0  0  0  0  0  0  0  0  0  0
   -9.8183  210.1094  113.9975 H   0  0  0  0  0  0  0  0  0  0  0  0
   -7.9392  208.8925  115.5818 H   0  0  0  0  0  0  0  0  0  0  0  0
   -8.3053  210.5913  115.0899 H   0  0  0  0  0  0  0  0  0  0  0  0
   -6.5543  209.3951  113.1175 H   0  0  0  0  0  0  0  0  0  0  0  0
   -5.8447  208.7038  112.5659 H   0  0  0  0  0  0  0  0  0  0  0  0
   -6.3688  210.3982  112.2357 H   0  0  0  0  0  0  0  0  0  0  0  0
   -7.8943  209.6829  111.0519 H   0  0  0  0  0  0  0  0  0  0  0  0
   -7.5425  208.0099  111.6357 H   0  0  0  0  0  0  0  0  0  0  0  0
   -4.2695  210.8655  113.5202 H   0  0  0  0  0  0  0  0  0  0  0  0
   -5.9814  212.2624  114.8135 H   0  0  0  0  0  0  0  0  0  0  0  0
   -6.0688  209.4134  116.9090 H   0  0  0  0  0  0  0  0  0  0  0  0
   -3.8923  205.4924  114.4913 H   0  0  0  0  0  0  0  0  0  0  0  0
   -2.5070  206.1924  115.4489 H   0  0  0  0  0  0  0  0  0  0  0  0
   -2.9402  204.9409  117.0016 H   0  0  0  0  0  0  0  0  0  0  0  0
   -4.4581  204.4421  116.1905 H   0  0  0  0  0  0  0  0  0  0  0  0
   -4.1945  205.8086  118.5328 H   0  0  0  0  0  0  0  0  0  0  0  0
   -5.6112  205.3054  117.5166 H   0  0  0  0  0  0  0  0  0  0  0  0
   -4.9680  207.7363  118.2922 H   0  0  0  0  0  0  0  0  0  0  0  0
   -4.7263  208.0283  115.2474 H   0  0  0  0  0  0  0  0  0  0  0  0
   -4.5847  207.5114  114.2854 H   0  0  0  0  0  0  0  0  0  0  0  0
   -3.1185  208.0052  115.1880 H   0  0  0  0  0  0  0  0  0  0  0  0
  1  2  1  0  0  0  0
  1 32  1  0  0  0  0
  2  3  1  0  0  0  0
  2 13  1  0  0  0  0
  2 33  1  0  0  0  0
  3  4  1  0  0  0  0
  3 34  1  0  0  0  0
  4  5  1  0  0  0  0
  4 12  1  0  0  0  0
  4 35  1  0  0  0  0
  5  6  1  0  0  0  0
  5 36  1  0  0  0  0
  5 37  1  0  0  0  0
  6  7  1  0  0  0  0
  6 38  1  0  0  0  0
  6 39  1  0  0  0  0
  7  8  1  0  0  0  0
  7 11  1  0  0  0  0
  7 40  1  0  0  0  0
  8  9  1  0  0  0  0
  8 41  1  0  0  0  0
  9 10  1  0  0  0  0
  9 42  1  0  0  0  0
  9 43  1  0  0  0  0
 10 11  1  0  0  0  0
 11 12  1  0  0  0  0
 11 44  1  0  0  0  0
 12 13  1  0  0  0  0
 12 45  1  0  0  0  0
 13 14  1  0  0  0  0
 13 46  1  0  0  0  0
 14 15  1  0  0  0  0
 14 47  1  0  0  0  0
 14 48  1  0  0  0  0
 15 16  1  0  0  0  0
 15 49  1  0  0  0  0
 16 17  1  0  0  0  0
 16 21  1  0  0  0  0
 16 50  1  0  0  0  0
 17 18  1  0  0  0  0
 17 51  1  0  0  0  0
 17 52  1  0  0  0  0
 18 19  1  0  0  0  0
 18 53  1  0  0  0  0
 18 54  1  0  0  0  0
 19 20  1  0  0  0  0
 19 22  1  0  0  0  0
 19 55  1  0  0  0  0
 20 21  1  0  0  0  0
 20 56  1  0  0  0  0
 20 57  1  0  0  0  0
 21 58  1  0  0  0  0
 21 59  1  0  0  0  0
 22 23  1  0  0  0  0
 22 24  1  0  0  0  0
 22 25  1  0  0  0  0
 23 60  1  0  0  0  0
 24 61  1  0  0  0  0
 25 30  1  0  0  0  0
 25 62  1  0  0  0  0
 26 27  1  0  0  0  0
 26 31  1  0  0  0  0
 26 63  1  0  0  0  0
 26 64  1  0  0  0  0
 27 28  1  0  0  0  0
 27 65  1  0  0  0  0
 27 66  1  0  0  0  0
 28 29  1  0  0  0  0
 28 67  1  0  0  0  0
 28 68  1  0  0  0  0
 29 30  1  0  0  0  0
 29 69  1  0  0  0  0
 30 31  1  0  0  0  0
 30 70  1  0  0  0  0
 31 71  1  0  0  0  0
 31 72  1  0  0  0  0
M  END
$$$$
585494
 OpenBabel02081204513D

 46 50  0  0  0  0  0  0  0  0999 V2000
  -11.2220  207.9760  109.2120 O   0  0  0  0  0  0  0  0  0  0  0  0
  -12.1710  207.5020  109.8420 C   0  0  0  0  0  0  0  0  0  0  0  0
  -13.3600  207.1380  109.3200 N   0  0  0  0  0  0  0  0  0  0  0  0
  -14.2170  206.7500  110.3000 C   0  0  0  0  0  0  0  0  0  0  0  0
  -15.6380  206.3600  110.1900 C   0  0  0  0  0  0  0  0  0  0  0  0
  -16.3860  205.9670  111.3900 C   0  0  0  0  0  0  0  0  0  0  0  0
  -15.7410  206.0270  112.6900 C   0  0  0  0  0  0  0  0  0  0  0  0
  -16.2320  205.7140  113.9500 N   0  0  0  0  0  0  0  0  0  0  0  0
  -15.3040  205.8370  114.9320 C   0  0  0  0  0  0  0  0  0  0  0  0
  -13.8140  206.4530  114.4280 S   0  0  0  0  0  0  0  0  0  0  0  0
  -14.2920  206.4680  112.8160 C   0  0  0  0  0  0  0  0  0  0  0  0
  -13.5570  206.8060  111.5860 C   0  0  0  0  0  0  0  0  0  0  0  0
  -12.2030  207.2550  111.3270 C   0  0  0  0  0  0  0  0  0  0  0  0
  -11.1760  207.4750  112.1700 C   0  0  0  0  0  0  0  0  0  0  0  0
  -10.1070  208.4390  111.7920 N   0  0  0  0  0  0  0  0  0  0  0  0
   -9.0990  208.8850  112.5560 C   0  0  0  0  0  0  0  0  0  0  0  0
   -9.2420  209.2080  114.0130 C   0  0  0  0  0  0  0  0  0  0  0  0
   -8.0670  209.5940  114.7840 C   0  0  0  0  0  0  0  0  0  0  0  0
   -6.7650  209.7680  114.0980 C   0  0  0  0  0  0  0  0  0  0  0  0
   -6.6070  209.4480  112.6660 C   0  0  0  0  0  0  0  0  0  0  0  0
   -7.7830  209.0220  111.8860 C   0  0  0  0  0  0  0  0  0  0  0  0
   -5.4220  210.3800  115.0540 S   0  0  0  0  0  0  0  0  0  0  0  0
   -4.2100  210.2890  114.2980 O   0  0  0  0  0  0  0  0  0  0  0  0
   -5.8540  211.6490  115.5540 O   0  0  0  0  0  0  0  0  0  0  0  0
   -5.2170  209.3650  116.3500 N   0  0  0  0  0  0  0  0  0  0  0  0
   -3.5620  206.0480  115.3440 C   0  0  0  0  0  0  0  0  0  0  0  0
   -3.8620  205.2520  116.5560 C   0  0  0  0  0  0  0  0  0  0  0  0
   -4.7090  205.8750  117.5970 C   0  0  0  0  0  0  0  0  0  0  0  0
   -5.1930  207.2180  117.4430 N   0  0  0  0  0  0  0  0  0  0  0  0
   -4.8230  208.0270  116.3130 C   0  0  0  0  0  0  0  0  0  0  0  0
   -4.0220  207.4320  115.1920 C   0  0  0  0  0  0  0  0  0  0  0  0
  -16.1352  206.3642  109.2088 H   0  0  0  0  0  0  0  0  0  0  0  0
  -17.4293  205.6289  111.3053 H   0  0  0  0  0  0  0  0  0  0  0  0
  -15.5063  205.5571  115.9764 H   0  0  0  0  0  0  0  0  0  0  0  0
  -10.7013  206.5042  112.3754 H   0  0  0  0  0  0  0  0  0  0  0  0
  -11.6007  207.7979  113.1320 H   0  0  0  0  0  0  0  0  0  0  0  0
  -10.1459  208.8069  110.8307 H   0  0  0  0  0  0  0  0  0  0  0  0
  -10.2281  209.1540  114.4974 H   0  0  0  0  0  0  0  0  0  0  0  0
   -8.1462  209.7553  115.8692 H   0  0  0  0  0  0  0  0  0  0  0  0
   -5.6208  209.5267  112.1852 H   0  0  0  0  0  0  0  0  0  0  0  0
   -7.6849  208.8067  110.8117 H   0  0  0  0  0  0  0  0  0  0  0  0
   -5.4001  209.7651  117.2813 H   0  0  0  0  0  0  0  0  0  0  0  0
   -2.9770  205.5877  114.5341 H   0  0  0  0  0  0  0  0  0  0  0  0
   -3.4685  204.2321  116.6783 H   0  0  0  0  0  0  0  0  0  0  0  0
   -4.9709  205.3028  118.4992 H   0  0  0  0  0  0  0  0  0  0  0  0
   -3.7882  208.0137  114.2881 H   0  0  0  0  0  0  0  0  0  0  0  0
  1  2  2  0  0  0  0
  2  3  1  0  0  0  0
  2 13  1  0  0  0  0
  3  4  2  0  0  0  0
  4  5  1  0  0  0  0
  4 12  1  0  0  0  0
  5  6  2  0  0  0  0
  5 32  1  0  0  0  0
  6  7  1  0  0  0  0
  6 33  1  0  0  0  0
  7  8  1  0  0  0  0
  7 11  2  0  0  0  0
  8  9  2  0  0  0  0
  9 10  1  0  0  0  0
  9 34  1  0  0  0  0
 10 11  1  0  0  0  0
 11 12  1  0  0  0  0
 12 13  2  0  0  0  0
 13 14  1  0  0  0  0
 14 15  1  0  0  0  0
 14 35  1  0  0  0  0
 14 36  1  0  0  0  0
 15 16  1  0  0  0  0
 15 37  1  0  0  0  0
 16 17  2  0  0  0  0
 16 21  1  0  0  0  0
 17 18  1  0  0  0  0
 17 38  1  0  0  0  0
 18 19  2  0  0  0  0
 18 39  1  0  0  0  0
 19 20  1  0  0  0  0
 19 22  1  0  0  0  0
 20 21  2  0  0  0  0
 20 40  1  0  0  0  0
 21 41  1  0  0  0  0
 22 23  2  0  0  0  0
 22 24  2  0  0  0  0
 22 25  1  0  0  0  0
 25 30  1  0  0  0  0
 25 42  1  0  0  0  0
 26 27  2  0  0  0  0
 26 31  1  0  0  0  0
 26 43  1  0  0  0  0
 27 28  1  0  0  0  0
 27 44  1  0  0  0  0
 28 29  2  0  0  0  0
 28 45  1  0  0  0  0
 29 30  1  0  0  0  0
 30 31  2  0  0  0  0
 31 46  1  0  0  0  0
M  END
>  <name>
4-[(7-oxo-7h-thiazolo[5,4-e]indol-8-ylmethyl)-amino]-n-pyridin-2-yl-benzenesulfonamide

>  <score>
1.404

>  <target>
cell division protein kinase 2

$$$$
583728
 OpenBabel02081204513D

 41 44  0  0  0  0  0  0  0  0999 V2000
  -11.5658  208.0098  109.3544 O   0  0  0  0  0  0  0  0  0  0  0  0
  -12.5039  207.6617  110.0756 C   0  0  0  0  0  0  0  0  0  0  0  0
  -13.7813  207.4066  109.6983 N   0  0  0  0  0  0  0  0  0  0  0  0
  -14.5348  207.0684  110.7973 C   0  0  0  0  0  0  0  0  0  0  0  0
  -15.9645  206.7088  110.8819 C   0  0  0  0  0  0  0  0  0  0  0  0
  -16.5326  206.2921  112.1957 C   0  0  0  0  0  0  0  0  0  0  0  0
  -15.6760  206.2646  113.4149 C   0  0  0  0  0  0  0  0  0  0  0  0
  -14.2440  206.6693  113.3289 C   0  0  0  0  0  0  0  0  0  0  0  0
  -13.6989  207.0692  111.9961 C   0  0  0  0  0  0  0  0  0  0  0  0
  -12.3839  207.4946  111.5819 C   0  0  0  0  0  0  0  0  0  0  0  0
  -11.2846  207.7258  112.3202 C   0  0  0  0  0  0  0  0  0  0  0  0
  -10.0621  208.3922  111.8071 N   0  0  0  0  0  0  0  0  0  0  0  0
   -9.0635  208.9129  112.5538 C   0  0  0  0  0  0  0  0  0  0  0  0
   -9.2068  209.4108  113.9709 C   0  0  0  0  0  0  0  0  0  0  0  0
   -8.0520  209.9298  114.6793 C   0  0  0  0  0  0  0  0  0  0  0  0
   -6.7467  210.0189  113.9825 C   0  0  0  0  0  0  0  0  0  0  0  0
   -6.5848  209.5238  112.5972 C   0  0  0  0  0  0  0  0  0  0  0  0
   -7.7491  208.9724  111.8813 C   0  0  0  0  0  0  0  0  0  0  0  0
   -5.3664  210.6706  114.8853 S   0  0  0  0  0  0  0  0  0  0  0  0
   -4.2368  210.8769  114.0243 O   0  0  0  0  0  0  0  0  0  0  0  0
   -5.8822  211.8046  115.5831 O   0  0  0  0  0  0  0  0  0  0  0  0
   -4.9175  209.5131  116.0082 N   0  0  0  0  0  0  0  0  0  0  0  0
   -4.3141  208.1866  115.6381 C   0  0  0  0  0  0  0  0  0  0  0  0
   -4.5713  206.7675  116.5373 S   0  0  0  0  0  0  0  0  0  0  0  0
   -3.6747  205.8049  115.4661 C   0  0  0  0  0  0  0  0  0  0  0  0
   -3.0987  206.6103  114.4687 C   0  0  0  0  0  0  0  0  0  0  0  0
   -3.4907  207.9244  114.5789 N   0  0  0  0  0  0  0  0  0  0  0  0
  -14.1344  207.4585  108.7320 H   0  0  0  0  0  0  0  0  0  0  0  0
  -16.6024  206.7480  109.9867 H   0  0  0  0  0  0  0  0  0  0  0  0
  -17.5916  206.0028  112.2657 H   0  0  0  0  0  0  0  0  0  0  0  0
  -16.1005  205.9456  114.3782 H   0  0  0  0  0  0  0  0  0  0  0  0
  -13.6046  206.6736  114.2240 H   0  0  0  0  0  0  0  0  0  0  0  0
  -11.2917  207.4004  113.3710 H   0  0  0  0  0  0  0  0  0  0  0  0
   -9.9655  208.4649  110.7842 H   0  0  0  0  0  0  0  0  0  0  0  0
  -10.1879  209.3803  114.4674 H   0  0  0  0  0  0  0  0  0  0  0  0
   -8.1444  210.2549  115.7261 H   0  0  0  0  0  0  0  0  0  0  0  0
   -5.6019  209.5671  112.1051 H   0  0  0  0  0  0  0  0  0  0  0  0
   -7.6400  208.6065  110.8497 H   0  0  0  0  0  0  0  0  0  0  0  0
   -5.0625  209.7209  117.0065 H   0  0  0  0  0  0  0  0  0  0  0  0
   -3.5612  204.7134  115.5410 H   0  0  0  0  0  0  0  0  0  0  0  0
   -2.4159  206.2346  113.6924 H   0  0  0  0  0  0  0  0  0  0  0  0
  1  2  2  0  0  0  0
  2  3  1  0  0  0  0
  2 10  1  0  0  0  0
  3  4  1  0  0  0  0
  3 28  1  0  0  0  0
  4  5  2  0  0  0  0
  4  9  1  0  0  0  0
  5  6  1  0  0  0  0
  5 29  1  0  0  0  0
  6  7  2  0  0  0  0
  6 30  1  0  0  0  0
  7  8  1  0  0  0  0
  7 31  1  0  0  0  0
  8  9  2  0  0  0  0
  8 32  1  0  0  0  0
  9 10  1  0  0  0  0
 10 11  2  0  0  0  0
 11 12  1  0  0  0  0
 11 33  1  0  0  0  0
 12 13  1  0  0  0  0
 12 34  1  0  0  0  0
 13 14  2  0  0  0  0
 13 18  1  0  0  0  0
 14 15  1  0  0  0  0
 14 35  1  0  0  0  0
 15 16  2  0  0  0  0
 15 36  1  0  0  0  0
 16 17  1  0  0  0  0
 16 19  1  0  0  0  0
 17 18  2  0  0  0  0
 17 37  1  0  0  0  0
 18 38  1  0  0  0  0
 19 20  2  0  0  0  0
 19 21  2  0  0  0  0
 19 22  1  0  0  0  0
 22 23  1  0  0  0  0
 22 39  1  0  0  0  0
 23 24  1  0  0  0  0
 23 27  2  0  0  0  0
 24 25  1  0  0  0  0
 25 26  2  0  0  0  0
 25 40  1  0  0  0  0
 26 27  1  0  0  0  0
 26 41  1  0  0  0  0
M  END
>  <name>
4-{[(2-oxo-1,2-dihydro-3h-indol-3-ylidene)methyl]amino}-n-(1,3-thiazol-2-yl)benzenesulfonamide

>  <score>
1.32

>  <target>
cell division protein kinase 2

$$$$
